data/ligands/07N_GyrB_3D.pdb
 OpenBabel05242623493D

 82 86  0  0  1  0  0  0  0  0999 V2000
    5.7890    8.4620   23.5650 C   0  0  0  0  0  0  0  0  0  0  0  0
    1.1250    6.7100   21.7690 Cl  0  0  0  0  0  0  0  0  0  0  0  0
    4.4900    7.7050   23.4750 C   0  0  0  0  0  0  0  0  0  0  0  0
    3.6540    8.7680   21.0530 Cl  0  0  0  0  0  0  0  0  0  0  0  0
    3.5760    7.7840   22.4780 C   0  0  0  0  0  0  0  0  0  0  0  0
    2.5240    6.9190   22.7780 C   0  0  0  0  0  0  0  0  0  0  0  0
    2.8340    6.3210   23.9900 C   0  0  0  0  0  0  0  0  0  0  0  0
    4.0470    6.8220   24.4000 N   0  0  0  0  0  0  0  0  0  0  0  0
    2.0780    5.3350   24.7600 C   0  0  0  0  0  0  0  0  0  0  0  0
    2.5340    4.9900   25.8350 O   0  0  0  0  0  0  0  0  0  0  0  0
    0.9220    4.8220   24.2850 N   0  0  0  0  0  0  0  0  0  0  0  0
    0.1330    3.8280   25.0260 C   0  0  2  0  0  0  0  0  0  0  0  0
    0.8580    2.4680   25.0340 C   0  0  0  0  0  0  0  0  0  0  0  0
   -0.0310    1.4200   25.7140 C   0  0  0  0  0  0  0  0  0  0  0  0
   -1.3090    1.3830   24.9890 N   0  0  0  0  0  0  0  0  0  0  0  0
   -2.0990    2.6190   24.9790 C   0  0  0  0  0  0  0  0  0  0  0  0
   -1.2340    3.7110   24.3300 C   0  0  2  0  0  0  0  0  0  0  0  0
   -1.0060    3.3840   22.9900 F   0  0  0  0  0  0  0  0  0  0  0  0
   -1.9080    0.1570   24.7740 C   0  0  0  0  0  0  0  0  0  0  0  0
   -2.9950   -0.0470   24.0770 N   0  0  0  0  0  0  0  0  0  0  0  0
   -3.4100   -1.2860   23.9640 C   0  0  0  0  0  0  0  0  0  0  0  0
   -2.6140   -2.1980   24.6070 C   0  0  0  0  0  0  0  0  0  0  0  0
   -1.2940   -1.3230   25.3690 S   0  0  0  0  0  0  0  0  0  0  0  0
   -2.7850   -3.6030   24.6680 C   0  0  0  0  0  0  0  0  0  0  0  0
   -3.7150   -4.1450   24.1010 O   0  0  0  0  0  0  0  0  0  0  0  0
   -1.8880   -4.3430   25.3500 O   0  0  0  0  0  0  0  0  0  0  0  0
   23.0800  -15.3750    5.9730 C   0  0  0  0  0  0  0  0  0  0  0  0
   18.1690  -16.1760    4.1360 Cl  0  0  0  0  0  0  0  0  0  0  0  0
   21.6450  -15.8220    5.8790 C   0  0  0  0  0  0  0  0  0  0  0  0
   21.1580  -14.7780    3.3520 Cl  0  0  0  0  0  0  0  0  0  0  0  0
   20.8010  -15.6140    4.8370 C   0  0  0  0  0  0  0  0  0  0  0  0
   19.5690  -16.1930    5.1620 C   0  0  0  0  0  0  0  0  0  0  0  0
   19.7040  -16.7510    6.4240 C   0  0  0  0  0  0  0  0  0  0  0  0
   20.9870  -16.5090    6.8430 N   0  0  0  0  0  0  0  0  0  0  0  0
   18.7160  -17.4710    7.2330 C   0  0  0  0  0  0  0  0  0  0  0  0
   19.0290  -17.8100    8.3630 O   0  0  0  0  0  0  0  0  0  0  0  0
   17.4940  -17.7550    6.7400 N   0  0  0  0  0  0  0  0  0  0  0  0
   16.4990  -18.4670    7.5510 C   0  0  2  0  0  0  0  0  0  0  0  0
   16.8390  -19.9690    7.6520 C   0  0  0  0  0  0  0  0  0  0  0  0
   15.6860  -20.7540    8.3020 C   0  0  0  0  0  0  0  0  0  0  0  0
   14.4850  -20.4450    7.5190 N   0  0  0  0  0  0  0  0  0  0  0  0
   14.0880  -19.0380    7.6420 C   0  0  0  0  0  0  0  0  0  0  0  0
   15.1370  -18.2340    6.8850 C   0  0  2  0  0  0  0  0  0  0  0  0
   15.1970  -18.6640    5.5560 F   0  0  0  0  0  0  0  0  0  0  0  0
   13.4020  -21.2880    7.6020 C   0  0  0  0  0  0  0  0  0  0  0  0
   13.3720  -22.5510    7.9400 N   0  0  0  0  0  0  0  0  0  0  0  0
   12.1870  -23.1240    7.9200 C   0  0  0  0  0  0  0  0  0  0  0  0
   11.1600  -22.2940    7.5390 C   0  0  0  0  0  0  0  0  0  0  0  0
   11.8470  -20.7210    7.2060 S   0  0  0  0  0  0  0  0  0  0  0  0
    9.7780  -22.5770    7.4130 C   0  0  0  0  0  0  0  0  0  0  0  0
    9.3470  -23.6780    7.6530 O   0  0  0  0  0  0  0  0  0  0  0  0
    8.9220  -21.6090    7.0210 O   0  0  0  0  0  0  0  0  0  0  0  0
    5.8957    9.0907   22.7058 H   0  0  0  0  0  0  0  0  0  0  0  0
    6.6036    7.7693   23.6034 H   0  0  0  0  0  0  0  0  0  0  0  0
    5.7906    9.0638   24.4497 H   0  0  0  0  0  0  0  0  0  0  0  0
    4.5164    6.5783   25.2304 H   0  0  0  0  0  0  0  0  0  0  0  0
    0.5952    5.1262   23.4076 H   0  0  0  0  0  0  0  0  0  0  0  0
    0.0059    4.1300   26.0446 H   0  0  0  0  0  0  0  0  0  0  0  0
    1.7789    2.5577   25.5715 H   0  0  0  0  0  0  0  0  0  0  0  0
    1.0608    2.1656   24.0279 H   0  0  0  0  0  0  0  0  0  0  0  0
   -0.1987    1.6913   26.7354 H   0  0  0  0  0  0  0  0  0  0  0  0
    0.4395    0.4592   25.6953 H   0  0  0  0  0  0  0  0  0  0  0  0
   -2.3521    2.8995   25.9801 H   0  0  0  0  0  0  0  0  0  0  0  0
   -3.0084    2.4821   24.4321 H   0  0  0  0  0  0  0  0  0  0  0  0
   -1.7570    4.6402   24.4196 H   0  0  0  0  0  0  0  0  0  0  0  0
   -4.2583   -1.5501   23.4390 H   0  0  0  0  0  0  0  0  0  0  0  0
   -1.1717   -3.9257   25.7867 H   0  0  0  0  0  0  0  0  0  0  0  0
   23.3506  -14.8540    5.0784 H   0  0  0  0  0  0  0  0  0  0  0  0
   23.7126  -16.2295    6.0933 H   0  0  0  0  0  0  0  0  0  0  0  0
   23.1964  -14.7238    6.8140 H   0  0  0  0  0  0  0  0  0  0  0  0
   21.3686  -16.7896    7.7061 H   0  0  0  0  0  0  0  0  0  0  0  0
   17.2655  -17.4808    5.8225 H   0  0  0  0  0  0  0  0  0  0  0  0
   16.4878  -18.1001    8.5561 H   0  0  0  0  0  0  0  0  0  0  0  0
   17.7216  -20.0887    8.2450 H   0  0  0  0  0  0  0  0  0  0  0  0
   16.9959  -20.3497    6.6644 H   0  0  0  0  0  0  0  0  0  0  0  0
   15.5550  -20.4463    9.3184 H   0  0  0  0  0  0  0  0  0  0  0  0
   15.8862  -21.8051    8.3086 H   0  0  0  0  0  0  0  0  0  0  0  0
   14.0685  -18.7465    8.6713 H   0  0  0  0  0  0  0  0  0  0  0  0
   13.1081  -18.8727    7.2452 H   0  0  0  0  0  0  0  0  0  0  0  0
   14.8822  -17.1950    6.9054 H   0  0  0  0  0  0  0  0  0  0  0  0
   12.0412  -24.1146    8.1698 H   0  0  0  0  0  0  0  0  0  0  0  0
    9.2422  -20.7491    6.8312 H   0  0  0  0  0  0  0  0  0  0  0  0
  1  3  1  0  0  0  0
  1 53  1  0  0  0  0
  1 54  1  0  0  0  0
  1 55  1  0  0  0  0
  2  6  1  0  0  0  0
  3  5  2  0  0  0  0
  3  8  1  0  0  0  0
  4  5  1  0  0  0  0
  5  6  1  0  0  0  0
  6  7  2  0  0  0  0
  7  8  1  0  0  0  0
  7  9  1  0  0  0  0
  8 56  1  0  0  0  0
  9 10  2  0  0  0  0
  9 11  1  0  0  0  0
 11 12  1  0  0  0  0
 11 57  1  0  0  0  0
 12 13  1  0  0  0  0
 12 17  1  0  0  0  0
 12 58  1  1  0  0  0
 13 14  1  0  0  0  0
 13 59  1  0  0  0  0
 13 60  1  0  0  0  0
 14 15  1  0  0  0  0
 14 61  1  0  0  0  0
 14 62  1  0  0  0  0
 15 16  1  0  0  0  0
 15 19  1  0  0  0  0
 16 17  1  0  0  0  0
 16 63  1  0  0  0  0
 16 64  1  0  0  0  0
 17 18  1  0  0  0  0
 17 65  1  1  0  0  0
 19 20  2  0  0  0  0
 19 23  1  0  0  0  0
 20 21  1  0  0  0  0
 21 22  2  0  0  0  0
 21 66  1  0  0  0  0
 22 23  1  0  0  0  0
 22 24  1  0  0  0  0
 24 25  2  0  0  0  0
 24 26  1  0  0  0  0
 26 67  1  0  0  0  0
 27 29  1  0  0  0  0
 27 68  1  0  0  0  0
 27 69  1  0  0  0  0
 27 70  1  0  0  0  0
 28 32  1  0  0  0  0
 29 31  2  0  0  0  0
 29 34  1  0  0  0  0
 30 31  1  0  0  0  0
 31 32  1  0  0  0  0
 32 33  2  0  0  0  0
 33 34  1  0  0  0  0
 33 35  1  0  0  0  0
 34 71  1  0  0  0  0
 35 36  2  0  0  0  0
 35 37  1  0  0  0  0
 37 38  1  0  0  0  0
 37 72  1  0  0  0  0
 38 39  1  0  0  0  0
 38 43  1  0  0  0  0
 38 73  1  1  0  0  0
 39 40  1  0  0  0  0
 39 74  1  0  0  0  0
 39 75  1  0  0  0  0
 40 41  1  0  0  0  0
 40 76  1  0  0  0  0
 40 77  1  0  0  0  0
 41 42  1  0  0  0  0
 41 45  1  0  0  0  0
 42 43  1  0  0  0  0
 42 78  1  0  0  0  0
 42 79  1  0  0  0  0
 43 44  1  0  0  0  0
 43 80  1  1  0  0  0
 45 46  2  0  0  0  0
 45 49  1  0  0  0  0
 46 47  1  0  0  0  0
 47 48  2  0  0  0  0
 47 81  1  0  0  0  0
 48 49  1  0  0  0  0
 48 50  1  0  0  0  0
 50 51  2  0  0  0  0
 50 52  1  0  0  0  0
 52 82  1  0  0  0  0
M  END
>  <REMARK>
   6 EXTRAIDO AUTOMATICAMENTE POR ANTIGRAVITY
   6 LIGANDO DE CONTROL: 07N

$$$$
