3952079
     RDKit          3D

 57 56  0  0  1  0  0  0  0  0999 V2000
   -3.6000   -3.1459   -1.4331 O   0  0  0  0  0  0  0  0  0  0  0  0
   -6.1015   -2.1890   -1.2015 O   0  0  0  0  0  0  0  0  0  0  0  0
   -6.0964    0.5503    1.2338 O   0  0  0  0  0  0  0  0  0  0  0  0
   -5.4303    2.3559   -0.0247 O   0  0  0  0  0  0  0  0  0  0  0  0
    0.0747   -0.9456   -2.3031 C   0  0  0  0  0  0  0  0  0  0  0  0
   -1.4150   -1.2084   -2.0528 C   0  0  0  0  0  0  0  0  0  0  0  0
    0.6527    0.1511   -1.4039 C   0  0  0  0  0  0  0  0  0  0  0  0
   -1.6968   -1.8258   -0.6782 C   0  0  0  0  0  0  0  0  0  0  0  0
    2.1031    0.4702   -1.7764 C   0  0  0  0  0  0  0  0  0  0  0  0
   -3.1671   -2.2075   -0.4471 C   0  0  0  0  0  0  0  0  0  0  0  0
    2.6838    1.6554   -0.9980 C   0  0  0  0  0  0  0  0  0  0  0  0
    2.7189    1.4992    0.5250 C   0  0  0  0  0  0  0  0  0  0  0  0
   -4.1114   -0.9967   -0.4511 C   0  0  0  0  0  0  0  0  0  0  0  0
    3.4817    0.2787    1.0469 C   0  0  0  0  0  0  0  0  0  0  0  0
   -5.5650   -1.3957   -0.1402 C   0  0  0  0  0  0  0  0  0  0  0  0
    4.9483    0.1779    0.6163 C   0  0  0  0  0  0  0  0  0  0  0  0
    5.8073    1.3470    1.1128 C   0  0  0  0  0  0  0  0  0  0  0  0
   -6.4710   -0.1737    0.0515 C   0  0  0  0  0  0  0  0  0  0  0  0
    7.2796    1.2087    0.7205 C   0  0  0  0  0  0  0  0  0  0  0  0
    7.9554    0.1317    1.4574 C   0  0  0  0  0  0  0  0  0  0  0  0
   -5.6034    1.8029    1.0507 C   0  0  0  0  0  0  0  0  0  0  0  0
   -5.2757    2.4185    2.3761 C   0  0  0  0  0  0  0  0  0  0  0  0
    8.5143   -0.7526    2.0499 C   0  0  0  0  0  0  0  0  0  0  0  0
   -2.9542   -3.8742   -1.4458 H   0  0  0  0  0  0  0  0  0  0  0  0
   -5.3759   -2.7760   -1.5055 H   0  0  0  0  0  0  0  0  0  0  0  0
    0.6435   -1.8744   -2.1713 H   0  0  0  0  0  0  0  0  0  0  0  0
    0.1953   -0.6477   -3.3523 H   0  0  0  0  0  0  0  0  0  0  0  0
   -1.7766   -1.8853   -2.8362 H   0  0  0  0  0  0  0  0  0  0  0  0
   -1.9652   -0.2682   -2.1668 H   0  0  0  0  0  0  0  0  0  0  0  0
    0.0429    1.0583   -1.4939 H   0  0  0  0  0  0  0  0  0  0  0  0
    0.6074   -0.1723   -0.3591 H   0  0  0  0  0  0  0  0  0  0  0  0
   -1.0859   -2.7317   -0.5809 H   0  0  0  0  0  0  0  0  0  0  0  0
   -1.3830   -1.1393    0.1157 H   0  0  0  0  0  0  0  0  0  0  0  0
    2.1530    0.7136   -2.8455 H   0  0  0  0  0  0  0  0  0  0  0  0
    2.7284   -0.4190   -1.6332 H   0  0  0  0  0  0  0  0  0  0  0  0
   -3.2421   -2.7082    0.5255 H   0  0  0  0  0  0  0  0  0  0  0  0
    2.0996    2.5527   -1.2371 H   0  0  0  0  0  0  0  0  0  0  0  0
    3.6970    1.8519   -1.3670 H   0  0  0  0  0  0  0  0  0  0  0  0
    3.1494    2.4097    0.9579 H   0  0  0  0  0  0  0  0  0  0  0  0
    1.6925    1.4555    0.9070 H   0  0  0  0  0  0  0  0  0  0  0  0
   -4.0973   -0.5257   -1.4411 H   0  0  0  0  0  0  0  0  0  0  0  0
   -3.7502   -0.2674    0.2819 H   0  0  0  0  0  0  0  0  0  0  0  0
    2.9632   -0.6346    0.7321 H   0  0  0  0  0  0  0  0  0  0  0  0
    3.4362    0.2867    2.1428 H   0  0  0  0  0  0  0  0  0  0  0  0
   -5.5839   -1.9985    0.7757 H   0  0  0  0  0  0  0  0  0  0  0  0
    5.0172    0.1042   -0.4748 H   0  0  0  0  0  0  0  0  0  0  0  0
    5.3477   -0.7627    1.0129 H   0  0  0  0  0  0  0  0  0  0  0  0
    5.4311    2.2814    0.6817 H   0  0  0  0  0  0  0  0  0  0  0  0
    5.7153    1.4361    2.2031 H   0  0  0  0  0  0  0  0  0  0  0  0
   -7.5047   -0.5052    0.1921 H   0  0  0  0  0  0  0  0  0  0  0  0
   -6.4781    0.4478   -0.8504 H   0  0  0  0  0  0  0  0  0  0  0  0
    7.3674    1.0351   -0.3571 H   0  0  0  0  0  0  0  0  0  0  0  0
    7.7891    2.1554    0.9320 H   0  0  0  0  0  0  0  0  0  0  0  0
   -6.1757    2.4711    2.9926 H   0  0  0  0  0  0  0  0  0  0  0  0
   -4.8997    3.4340    2.2207 H   0  0  0  0  0  0  0  0  0  0  0  0
   -4.5018    1.8303    2.8764 H   0  0  0  0  0  0  0  0  0  0  0  0
    9.0120   -1.5399    2.5710 H   0  0  0  0  0  0  0  0  0  0  0  0
  1 10  1  0
  2 15  1  0
  3 18  1  0
  3 21  1  0
  4 21  2  0
  5  6  1  0
  5  7  1  0
  6  8  1  0
  7  9  1  0
  8 10  1  0
  9 11  1  0
 10 13  1  0
 11 12  1  0
 12 14  1  0
 13 15  1  0
 14 16  1  0
 15 18  1  0
 16 17  1  0
 17 19  1  0
 19 20  1  0
 20 23  3  0
 21 22  1  0
  1 24  1  0
  2 25  1  0
  5 26  1  0
  5 27  1  0
  6 28  1  0
  6 29  1  0
  7 30  1  0
  7 31  1  0
  8 32  1  0
  8 33  1  0
  9 34  1  0
  9 35  1  0
 10 36  1  0
 11 37  1  0
 11 38  1  0
 12 39  1  0
 12 40  1  0
 13 41  1  0
 13 42  1  0
 14 43  1  0
 14 44  1  0
 15 45  1  0
 16 46  1  0
 16 47  1  0
 17 48  1  0
 17 49  1  0
 18 50  1  0
 18 51  1  0
 19 52  1  0
 19 53  1  0
 22 54  1  0
 22 55  1  0
 22 56  1  0
 23 57  1  0
M  END
