3624980
     RDKit          3D

 59 58  0  0  1  0  0  0  0  0999 V2000
   -4.8855   -0.3554    1.2328 O   0  0  0  0  0  0  0  0  0  0  0  0
   -5.0422   -0.6059   -2.6887 O   0  0  0  0  0  0  0  0  0  0  0  0
   -7.0692    0.1556   -0.4019 O   0  0  0  0  0  0  0  0  0  0  0  0
   -6.4520    1.6031   -2.0616 O   0  0  0  0  0  0  0  0  0  0  0  0
   -0.2381   -1.5299    0.0308 C   0  0  0  0  0  0  0  0  0  0  0  0
   -1.6234   -1.1115   -0.4762 C   0  0  0  0  0  0  0  0  0  0  0  0
    0.4151   -0.4889    0.9440 C   0  0  0  0  0  0  0  0  0  0  0  0
   -2.6860   -1.0651    0.6259 C   0  0  0  0  0  0  0  0  0  0  0  0
    1.7998   -0.9062    1.4537 C   0  0  0  0  0  0  0  0  0  0  0  0
   -4.0868   -0.7103    0.0985 C   0  0  0  0  0  0  0  0  0  0  0  0
    2.8627   -0.9617    0.3532 C   0  0  0  0  0  0  0  0  0  0  0  0
    4.2512   -1.3575    0.8682 C   0  0  0  0  0  0  0  0  0  0  0  0
   -4.7659   -1.8724   -0.6453 C   0  0  0  0  0  0  0  0  0  0  0  0
    4.8809   -0.4058    1.8904 C   0  0  0  0  0  0  0  0  0  0  0  0
   -5.7267   -1.4653   -1.7750 C   0  0  0  0  0  0  0  0  0  0  0  0
    5.0140    1.0539    1.4443 C   0  0  0  0  0  0  0  0  0  0  0  0
    5.7974    1.2852    0.1468 C   0  0  0  0  0  0  0  0  0  0  0  0
   -7.1046   -0.9262   -1.3417 C   0  0  0  0  0  0  0  0  0  0  0  0
    7.2547    0.8161    0.2265 C   0  0  0  0  0  0  0  0  0  0  0  0
    8.1145    1.0911   -0.9797 C   0  0  0  0  0  0  0  0  0  0  0  0
   -6.7443    1.3776   -0.8939 C   0  0  0  0  0  0  0  0  0  0  0  0
    7.7482    1.6725   -2.1291 C   0  0  0  0  0  0  0  0  0  0  0  0
   -6.7585    2.4067    0.1934 C   0  0  0  0  0  0  0  0  0  0  0  0
   -4.8734   -1.1047    1.8532 H   0  0  0  0  0  0  0  0  0  0  0  0
   -5.4885    0.2682   -2.6984 H   0  0  0  0  0  0  0  0  0  0  0  0
   -0.3122   -2.4907    0.5543 H   0  0  0  0  0  0  0  0  0  0  0  0
    0.3962   -1.6952   -0.8471 H   0  0  0  0  0  0  0  0  0  0  0  0
   -1.5547   -0.1313   -0.9636 H   0  0  0  0  0  0  0  0  0  0  0  0
   -1.9223   -1.8253   -1.2513 H   0  0  0  0  0  0  0  0  0  0  0  0
   -0.2205   -0.3212    1.8205 H   0  0  0  0  0  0  0  0  0  0  0  0
    0.4908    0.4710    0.4191 H   0  0  0  0  0  0  0  0  0  0  0  0
   -2.4035   -0.3188    1.3781 H   0  0  0  0  0  0  0  0  0  0  0  0
   -2.7238   -2.0244    1.1578 H   0  0  0  0  0  0  0  0  0  0  0  0
    1.7306   -1.8800    1.9535 H   0  0  0  0  0  0  0  0  0  0  0  0
    2.1014   -0.1790    2.2162 H   0  0  0  0  0  0  0  0  0  0  0  0
   -4.0120    0.1819   -0.5307 H   0  0  0  0  0  0  0  0  0  0  0  0
    2.5715   -1.7024   -0.4000 H   0  0  0  0  0  0  0  0  0  0  0  0
    2.9126    0.0023   -0.1652 H   0  0  0  0  0  0  0  0  0  0  0  0
    4.9242   -1.4605    0.0085 H   0  0  0  0  0  0  0  0  0  0  0  0
    4.1889   -2.3555    1.3207 H   0  0  0  0  0  0  0  0  0  0  0  0
   -3.9918   -2.4886   -1.1168 H   0  0  0  0  0  0  0  0  0  0  0  0
   -5.2989   -2.5214    0.0604 H   0  0  0  0  0  0  0  0  0  0  0  0
    5.8703   -0.7942    2.1605 H   0  0  0  0  0  0  0  0  0  0  0  0
    4.2974   -0.4322    2.8186 H   0  0  0  0  0  0  0  0  0  0  0  0
   -5.9353   -2.3750   -2.3524 H   0  0  0  0  0  0  0  0  0  0  0  0
    5.4959    1.6177    2.2533 H   0  0  0  0  0  0  0  0  0  0  0  0
    4.0145    1.4905    1.3303 H   0  0  0  0  0  0  0  0  0  0  0  0
    5.7751    2.3619   -0.0659 H   0  0  0  0  0  0  0  0  0  0  0  0
    5.2877    0.7917   -0.6887 H   0  0  0  0  0  0  0  0  0  0  0  0
   -7.6604   -1.7330   -0.8509 H   0  0  0  0  0  0  0  0  0  0  0  0
   -7.6910   -0.6223   -2.2179 H   0  0  0  0  0  0  0  0  0  0  0  0
    7.2828   -0.2654    0.4025 H   0  0  0  0  0  0  0  0  0  0  0  0
    7.7338    1.2907    1.0919 H   0  0  0  0  0  0  0  0  0  0  0  0
    9.1511    0.7693   -0.8837 H   0  0  0  0  0  0  0  0  0  0  0  0
    8.4696    1.8130   -2.9290 H   0  0  0  0  0  0  0  0  0  0  0  0
    6.7379    2.0212   -2.3125 H   0  0  0  0  0  0  0  0  0  0  0  0
   -6.7519    3.4048   -0.2543 H   0  0  0  0  0  0  0  0  0  0  0  0
   -5.8758    2.2904    0.8258 H   0  0  0  0  0  0  0  0  0  0  0  0
   -7.6710    2.3103    0.7881 H   0  0  0  0  0  0  0  0  0  0  0  0
  1 10  1  0
  2 15  1  0
  3 18  1  0
  3 21  1  0
  4 21  2  0
  5  6  1  0
  5  7  1  0
  6  8  1  0
  7  9  1  0
  8 10  1  0
  9 11  1  0
 10 13  1  0
 11 12  1  0
 12 14  1  0
 13 15  1  0
 14 16  1  0
 15 18  1  0
 16 17  1  0
 17 19  1  0
 19 20  1  0
 20 22  2  0
 21 23  1  0
  1 24  1  0
  2 25  1  0
  5 26  1  0
  5 27  1  0
  6 28  1  0
  6 29  1  0
  7 30  1  0
  7 31  1  0
  8 32  1  0
  8 33  1  0
  9 34  1  0
  9 35  1  0
 10 36  1  0
 11 37  1  0
 11 38  1  0
 12 39  1  0
 12 40  1  0
 13 41  1  0
 13 42  1  0
 14 43  1  0
 14 44  1  0
 15 45  1  0
 16 46  1  0
 16 47  1  0
 17 48  1  0
 17 49  1  0
 18 50  1  0
 18 51  1  0
 19 52  1  0
 19 53  1  0
 20 54  1  0
 22 55  1  0
 22 56  1  0
 23 57  1  0
 23 58  1  0
 23 59  1  0
M  END
