data/ligands/Ceftaroline_3D.pdb
 OpenBabel05242623493D

130136  0  0  1  0  0  0  0  0999 V2000
   27.1540   28.4460   89.1640 S   0  0  0  0  0  0  0  0  0  0  0  0
   25.3430   29.2220   87.4670 N   0  0  0  0  0  0  0  0  0  0  0  0
   28.4720   32.1110   87.9110 S   0  0  0  0  0  0  0  0  0  0  0  0
   27.6430   26.5850   87.1550 N   0  0  0  0  0  0  0  0  0  0  0  0
   25.7270   26.5900   85.2480 O   0  0  0  0  0  0  0  0  0  0  0  0
   26.6890   32.0680   90.3950 S   0  0  0  0  0  0  0  0  0  0  0  0
   25.9350   28.0810   88.4220 C   0  0  1  0  0  0  0  0  0  0  0  0
   30.7090   25.8610   87.5220 N   0  0  0  0  0  0  0  0  0  0  0  0
   25.7610   32.4810   86.2790 O   0  0  0  0  0  0  0  0  0  0  0  0
   31.4240   23.1900   84.0580 S   0  0  0  0  0  0  0  0  0  0  0  0
   26.2510   26.7430   87.5670 C   0  0  1  0  0  0  0  0  0  0  0  0
   27.9820   34.1450   89.8860 N   0  0  0  0  0  0  0  0  0  0  0  0
   24.0800   31.8080   87.8050 O   0  0  0  0  0  0  0  0  0  0  0  0
   25.3010   26.6440   86.4120 C   0  0  0  0  0  0  0  0  0  0  0  0
   29.2170   23.5590   85.0380 N   0  0  0  0  0  0  0  0  0  0  0  0
   27.7480   24.3420   87.8020 O   0  0  0  0  0  0  0  0  0  0  0  0
   25.9570   30.5530   87.4710 C   0  0  0  0  0  0  0  0  0  0  0  0
   31.4360   24.1630   85.3130 N   0  0  0  0  0  0  0  0  0  0  0  0
   30.9250   27.0960   87.1160 O   0  0  0  0  0  0  0  0  0  0  0  0
   28.1370   29.3530   88.1390 C   0  0  0  0  0  0  0  0  0  0  0  0
   29.0770   21.9820   83.0320 N   0  0  0  0  0  0  0  0  0  0  0  0
   27.3540   30.5920   87.7750 C   0  0  0  0  0  0  0  0  0  0  0  0
   27.2640   38.1370   93.2780 N   0  0  0  0  0  0  0  0  0  0  0  0
   25.1550   31.7950   87.1310 C   0  0  0  0  0  0  0  0  0  0  0  0
   28.3340   25.2770   87.3390 C   0  0  0  0  0  0  0  0  0  0  0  0
   29.7820   25.1850   86.8900 C   0  0  0  0  0  0  0  0  0  0  0  0
   27.7840   32.8980   89.3920 C   0  0  0  0  0  0  0  0  0  0  0  0
   30.1600   24.2840   85.7590 C   0  0  0  0  0  0  0  0  0  0  0  0
   27.2850   34.4500   91.0400 C   0  0  0  0  0  0  0  0  0  0  0  0
   26.4720   33.3700   91.5020 C   0  0  0  0  0  0  0  0  0  0  0  0
   27.3300   35.7860   91.8130 C   0  0  0  0  0  0  0  0  0  0  0  0
   29.7720   22.8490   83.9940 C   0  0  1  0  0  0  0  0  0  0  0  0
   26.4300   36.8070   91.5070 C   0  0  0  0  0  0  0  0  0  0  0  0
   28.1950   35.9670   92.8890 C   0  0  0  0  0  0  0  0  0  0  0  0
   31.7950   27.9100   87.8300 C   0  0  0  0  0  0  0  0  0  0  0  0
   26.4120   37.9780   92.2270 C   0  0  0  0  0  0  0  0  0  0  0  0
   28.1480   37.1810   93.6050 C   0  0  0  0  0  0  0  0  0  0  0  0
   32.2600   29.1610   87.1740 C   0  0  0  0  0  0  0  0  0  0  0  0
   27.2630   39.3840   94.0100 C   0  0  0  0  0  0  0  0  0  0  0  0
  -36.6200   46.2940   68.6160 S   0  0  0  0  0  0  0  0  0  0  0  0
  -34.1850   45.2710   68.8510 N   0  0  0  0  0  0  0  0  0  0  0  0
  -36.9850   42.4090   67.3200 S   0  0  0  0  0  0  0  0  0  0  0  0
  -35.7040   47.6290   66.3370 N   0  0  0  0  0  0  0  0  0  0  0  0
  -33.3590   48.7910   66.6500 O   0  0  0  0  0  0  0  0  0  0  0  0
  -37.0550   40.5870   69.9090 S   0  0  0  0  0  0  0  0  0  0  0  0
  -35.1670   46.5000   68.6860 C   0  0  1  0  0  0  0  0  0  0  0  0
  -38.0190   49.3170   65.5090 N   0  0  0  0  0  0  0  0  0  0  0  0
  -33.7770   42.9450   66.4470 O   0  0  0  0  0  0  0  0  0  0  0  0
  -36.1570   52.2450   62.9830 S   0  0  0  0  0  0  0  0  0  0  0  0
  -34.7650   46.9480   67.2110 C   0  0  2  0  0  0  0  0  0  0  0  0
  -36.8950   39.6040   67.6820 N   0  0  0  0  0  0  0  0  0  0  0  0
  -32.9860   42.6420   68.6350 O   0  0  0  0  0  0  0  0  0  0  0  0
  -33.5730   47.8070   67.3440 C   0  0  0  0  0  0  0  0  0  0  0  0
  -35.2210   51.5270   65.0640 N   0  0  0  0  0  0  0  0  0  0  0  0
  -35.5220   49.6190   67.5640 O   0  0  0  0  0  0  0  0  0  0  0  0
  -34.6270   44.0480   68.2000 C   0  0  0  0  0  0  0  0  0  0  0  0
  -37.0180   51.1100   63.6460 N   0  0  0  0  0  0  0  0  0  0  0  0
  -38.3360   48.7860   64.3470 O   0  0  0  0  0  0  0  0  0  0  0  0
  -37.0260   44.7880   68.6330 C   0  0  0  0  0  0  0  0  0  0  0  0
  -33.8180   53.3860   64.0070 N   0  0  0  0  0  0  0  0  0  0  0  0
  -35.9820   43.7910   68.1080 C   0  0  0  0  0  0  0  0  0  0  0  0
  -36.2670   34.5330   66.8740 N   0  0  0  0  0  0  0  0  0  0  0  0
  -33.6470   43.0680   67.6660 C   0  0  0  0  0  0  0  0  0  0  0  0
  -36.0110   49.0480   66.6320 C   0  0  0  0  0  0  0  0  0  0  0  0
  -36.9100   49.6980   65.6190 C   0  0  0  0  0  0  0  0  0  0  0  0
  -36.9850   40.8410   68.2530 C   0  0  0  0  0  0  0  0  0  0  0  0
  -36.3840   50.8080   64.7910 C   0  0  0  0  0  0  0  0  0  0  0  0
  -36.8950   38.5090   68.5150 C   0  0  0  0  0  0  0  0  0  0  0  0
  -36.9770   38.8810   69.8810 C   0  0  0  0  0  0  0  0  0  0  0  0
  -36.7280   37.0620   67.9590 C   0  0  0  0  0  0  0  0  0  0  0  0
  -34.9270   52.4450   64.0770 C   0  0  2  0  0  0  0  0  0  0  0  0
  -35.9410   36.8720   66.7780 C   0  0  0  0  0  0  0  0  0  0  0  0
  -37.2460   35.9060   68.5820 C   0  0  0  0  0  0  0  0  0  0  0  0
  -37.9570   47.4800   64.0630 C   0  0  0  0  0  0  0  0  0  0  0  0
  -35.7310   35.6140   66.2550 C   0  0  0  0  0  0  0  0  0  0  0  0
  -37.0070   34.6750   67.9970 C   0  0  0  0  0  0  0  0  0  0  0  0
  -39.0160   46.4350   64.0920 C   0  0  0  0  0  0  0  0  0  0  0  0
  -36.0540   33.2150   66.3360 C   0  0  0  0  0  0  0  0  0  0  0  0
   24.5739   29.0313   86.8827 H   0  0  0  0  0  0  0  0  0  0  0  0
   28.1261   27.3438   86.7549 H   0  0  0  0  0  0  0  0  0  0  0  0
   25.1679   27.9237   89.1512 H   0  0  0  0  0  0  0  0  0  0  0  0
   26.0939   25.9183   88.2304 H   0  0  0  0  0  0  0  0  0  0  0  0
   23.8918   31.1093   88.4003 H   0  0  0  0  0  0  0  0  0  0  0  0
   24.2841   26.6206   86.5864 H   0  0  0  0  0  0  0  0  0  0  0  0
   32.2287   24.6009   85.6991 H   0  0  0  0  0  0  0  0  0  0  0  0
   29.0432   29.6228   88.6399 H   0  0  0  0  0  0  0  0  0  0  0  0
   28.4034   28.7946   87.2660 H   0  0  0  0  0  0  0  0  0  0  0  0
   29.7531   21.5928   82.3749 H   0  0  0  0  0  0  0  0  0  0  0  0
   28.3827   22.5281   82.5219 H   0  0  0  0  0  0  0  0  0  0  0  0
   25.8693   33.3698   92.3397 H   0  0  0  0  0  0  0  0  0  0  0  0
   29.2591   22.2192   83.2975 H   0  0  0  0  0  0  0  0  0  0  0  0
   25.7663   36.6811   90.7268 H   0  0  0  0  0  0  0  0  0  0  0  0
   28.8597   35.2248   93.1581 H   0  0  0  0  0  0  0  0  0  0  0  0
   32.6625   27.3275   88.0603 H   0  0  0  0  0  0  0  0  0  0  0  0
   31.2274   28.2402   88.6748 H   0  0  0  0  0  0  0  0  0  0  0  0
   25.4200   38.0904   92.6119 H   0  0  0  0  0  0  0  0  0  0  0  0
   26.7471   38.7095   91.5216 H   0  0  0  0  0  0  0  0  0  0  0  0
   28.8006   37.3363   94.3893 H   0  0  0  0  0  0  0  0  0  0  0  0
   32.8418   28.9157   86.3102 H   0  0  0  0  0  0  0  0  0  0  0  0
   32.8594   29.7220   87.8602 H   0  0  0  0  0  0  0  0  0  0  0  0
   31.4134   29.7453   86.8796 H   0  0  0  0  0  0  0  0  0  0  0  0
   26.5005   40.0257   93.6204 H   0  0  0  0  0  0  0  0  0  0  0  0
   28.2162   39.8591   93.9065 H   0  0  0  0  0  0  0  0  0  0  0  0
   27.0716   39.1900   95.0447 H   0  0  0  0  0  0  0  0  0  0  0  0
  -33.3411   45.3294   69.3547 H   0  0  0  0  0  0  0  0  0  0  0  0
  -36.1214   47.1644   65.5760 H   0  0  0  0  0  0  0  0  0  0  0  0
  -35.0526   47.1282   69.5446 H   0  0  0  0  0  0  0  0  0  0  0  0
  -34.6544   46.0108   66.7067 H   0  0  0  0  0  0  0  0  0  0  0  0
  -33.1521   42.9712   69.4964 H   0  0  0  0  0  0  0  0  0  0  0  0
  -32.8776   47.5628   68.0664 H   0  0  0  0  0  0  0  0  0  0  0  0
  -37.8453   50.7065   63.2968 H   0  0  0  0  0  0  0  0  0  0  0  0
  -37.2486   44.5227   69.6454 H   0  0  0  0  0  0  0  0  0  0  0  0
  -37.8549   44.7105   67.9608 H   0  0  0  0  0  0  0  0  0  0  0  0
  -33.8851   53.9271   63.1449 H   0  0  0  0  0  0  0  0  0  0  0  0
  -32.9361   52.8737   64.0191 H   0  0  0  0  0  0  0  0  0  0  0  0
  -36.9875   38.2474   70.6955 H   0  0  0  0  0  0  0  0  0  0  0  0
  -34.0605   53.0718   64.0429 H   0  0  0  0  0  0  0  0  0  0  0  0
  -35.5235   37.6916   66.3100 H   0  0  0  0  0  0  0  0  0  0  0  0
  -37.7914   35.9775   69.4552 H   0  0  0  0  0  0  0  0  0  0  0  0
  -37.5301   47.4764   63.0818 H   0  0  0  0  0  0  0  0  0  0  0  0
  -37.2884   47.2122   64.8543 H   0  0  0  0  0  0  0  0  0  0  0  0
  -34.6722   35.4623   66.2262 H   0  0  0  0  0  0  0  0  0  0  0  0
  -36.2438   35.6446   65.3164 H   0  0  0  0  0  0  0  0  0  0  0  0
  -37.4095   33.8317   68.4351 H   0  0  0  0  0  0  0  0  0  0  0  0
  -39.7327   46.6320   63.3223 H   0  0  0  0  0  0  0  0  0  0  0  0
  -39.5032   46.4473   65.0446 H   0  0  0  0  0  0  0  0  0  0  0  0
  -38.5736   45.4743   63.9300 H   0  0  0  0  0  0  0  0  0  0  0  0
  -35.4524   33.2828   65.4538 H   0  0  0  0  0  0  0  0  0  0  0  0
  -36.9972   32.7729   66.0914 H   0  0  0  0  0  0  0  0  0  0  0  0
  -35.5541   32.6095   67.0629 H   0  0  0  0  0  0  0  0  0  0  0  0
  2 17  1  0  0  0  0
  2  7  1  0  0  0  0
  2 79  1  0  0  0  0
  3 27  1  0  0  0  0
  4 25  1  0  0  0  0
  4 11  1  0  0  0  0
  4 80  1  0  0  0  0
  5 14  2  0  0  0  0
  6 30  1  0  0  0  0
  7  1  1  0  0  0  0
  7 81  1  1  0  0  0
  9 24  2  0  0  0  0
 10 18  1  0  0  0  0
 11  7  1  0  0  0  0
 11 82  1  1  0  0  0
 12 29  1  0  0  0  0
 13 83  1  0  0  0  0
 14 11  1  0  0  0  0
 14 84  1  0  0  0  0
 15 28  2  0  0  0  0
 17 22  2  0  0  0  0
 18 28  1  0  0  0  0
 18 85  1  0  0  0  0
 19  8  1  0  0  0  0
 19 35  1  0  0  0  0
 20  1  1  0  0  0  0
 20 86  1  0  0  0  0
 20 87  1  0  0  0  0
 21 32  1  0  0  0  0
 21 88  1  0  0  0  0
 21 89  1  0  0  0  0
 22  3  1  0  0  0  0
 22 20  1  0  0  0  0
 23 37  1  0  0  0  0
 23 39  1  0  0  0  0
 24 17  1  0  0  0  0
 24 13  1  0  0  0  0
 25 16  2  0  0  0  0
 26 25  1  0  0  0  0
 26  8  2  0  0  0  0
 27 12  2  0  0  0  0
 27  6  1  0  0  0  0
 28 26  1  0  0  0  0
 29 30  2  0  0  0  0
 29 31  1  0  0  0  0
 30 90  1  0  0  0  0
 31 34  1  0  0  0  0
 32 10  1  0  0  0  0
 32 15  1  0  0  0  0
 32 91  1  1  0  0  0
 33 31  2  0  0  0  0
 33 36  1  0  0  0  0
 33 92  1  0  0  0  0
 34 37  2  0  0  0  0
 34 93  1  0  0  0  0
 35 94  1  0  0  0  0
 35 95  1  0  0  0  0
 36 23  1  0  0  0  0
 36 96  1  0  0  0  0
 36 97  1  0  0  0  0
 37 98  1  0  0  0  0
 38 35  1  0  0  0  0
 38 99  1  0  0  0  0
 38100  1  0  0  0  0
 38101  1  0  0  0  0
 39102  1  0  0  0  0
 39103  1  0  0  0  0
 39104  1  0  0  0  0
 40 59  1  0  0  0  0
 40 46  1  0  0  0  0
 41105  1  0  0  0  0
 42 61  1  0  0  0  0
 42 66  1  0  0  0  0
 43 64  1  0  0  0  0
 43 50  1  0  0  0  0
 43106  1  0  0  0  0
 44 53  2  0  0  0  0
 46 41  1  0  0  0  0
 46107  1  1  0  0  0
 47 65  2  0  0  0  0
 48 63  2  0  0  0  0
 49 57  1  0  0  0  0
 49 71  1  0  0  0  0
 50 53  1  0  0  0  0
 50 46  1  0  0  0  0
 50108  1  6  0  0  0
 51 66  2  0  0  0  0
 51 68  1  0  0  0  0
 52109  1  0  0  0  0
 53110  1  0  0  0  0
 56 41  1  0  0  0  0
 57 67  1  0  0  0  0
 57111  1  0  0  0  0
 58 47  1  0  0  0  0
 59112  1  0  0  0  0
 59113  1  0  0  0  0
 60 71  1  0  0  0  0
 60114  1  0  0  0  0
 60115  1  0  0  0  0
 61 56  2  0  0  0  0
 61 59  1  0  0  0  0
 62 76  1  0  0  0  0
 63 56  1  0  0  0  0
 63 52  1  0  0  0  0
 64 55  2  0  0  0  0
 65 64  1  0  0  0  0
 66 45  1  0  0  0  0
 67 54  2  0  0  0  0
 67 65  1  0  0  0  0
 68 69  2  0  0  0  0
 69 45  1  0  0  0  0
 69116  1  0  0  0  0
 70 68  1  0  0  0  0
 70 73  1  0  0  0  0
 71 54  1  0  0  0  0
 71117  1  6  0  0  0
 72 70  2  0  0  0  0
 72118  1  0  0  0  0
 73119  1  0  0  0  0
 74 77  1  0  0  0  0
 74 58  1  0  0  0  0
 74120  1  0  0  0  0
 74121  1  0  0  0  0
 75 72  1  0  0  0  0
 75 62  1  0  0  0  0
 75122  1  0  0  0  0
 75123  1  0  0  0  0
 76 73  2  0  0  0  0
 76124  1  0  0  0  0
 77125  1  0  0  0  0
 77126  1  0  0  0  0
 77127  1  0  0  0  0
 78 62  1  0  0  0  0
 78128  1  0  0  0  0
 78129  1  0  0  0  0
 78130  1  0  0  0  0
M  END
>  <REMARK>
   6 EXTRAIDO AUTOMATICAMENTE POR ANTIGRAVITY
   6 LIGANDO DE CONTROL: AI8

$$$$
